# AFLOW.org Repositories
# Ag1Co1O2   [HEX,HEX,hP8] (STD_PRIM doi:1 with_corners
data_Ag1Co1O2
_pd_phase_name Ag1Co1O2
_cell_length_a  2.9062915258
_cell_length_b  2.9062915258
_cell_length_c  12.4385510326
_cell_angle_alpha  90.0000000000
_cell_angle_beta  90.0000000000
_cell_angle_gamma  120.0000000000
_symmetry_space_group_name_H-M  'P1'
_symmetry_Int_Tables_Number  1
loop_
_symmetry_equiv_pos_site_id
_symmetry_equiv_pos_as_xyz
  1  x,y,z
loop_
 _atom_site_label
 _atom_site_occupancy
 _atom_site_fract_x
 _atom_site_fract_y
 _atom_site_fract_z
 _atom_site_thermal_displace_type
 _atom_site_B_iso_or_equiv
 _atom_site_type_symbol
Ag1 1.0000000000 0.6666991183 0.3333982366 0.2500000000  Biso 1.0 Ag
Ag2 1.0000000000 0.3333008817 0.6666017634 0.7500000000  Biso 1.0 Ag
Co3 1.0000000000 0.0000000000 0.0000000000 0.0000000000  Biso 1.0 Co
Co4 1.0000000000 0.0000000000 0.0000000000 0.9900000000  Biso 1.0 Co
Co5 1.0000000000 0.0000000000 0.9900000000 0.0000000000  Biso 1.0 Co
Co6 1.0000000000 0.0000000000 0.9900000000 0.9900000000  Biso 1.0 Co
Co7 1.0000000000 0.9900000000 0.0000000000 0.0000000000  Biso 1.0 Co
Co8 1.0000000000 0.9900000000 0.0000000000 0.9900000000  Biso 1.0 Co
Co9 1.0000000000 0.9900000000 0.9900000000 0.0000000000  Biso 1.0 Co
Co10 1.0000000000 0.9900000000 0.9900000000 0.9900000000  Biso 1.0 Co
Co11 1.0000000000 0.0000000000 0.0000000000 0.5000000000  Biso 1.0 Co
Co12 1.0000000000 0.0000000000 0.9900000000 0.5000000000  Biso 1.0 Co
Co13 1.0000000000 0.9900000000 0.0000000000 0.5000000000  Biso 1.0 Co
Co14 1.0000000000 0.9900000000 0.9900000000 0.5000000000  Biso 1.0 Co
O15 1.0000000000 0.6666784358 0.3333568715 0.0775395892  Biso 1.0 O
O16 1.0000000000 0.3333215642 0.6666431285 0.5775395892  Biso 1.0 O
O17 1.0000000000 0.3333215642 0.6666431285 0.9224604108  Biso 1.0 O
O18 1.0000000000 0.6666784358 0.3333568715 0.4224604108  Biso 1.0 O
