data_image0
_chemical_formula_structural       Al4Co2O8
_chemical_formula_sum              "Al4 Co2 O8"
_cell_length_a       5.78507
_cell_length_b       5.78507
_cell_length_c       5.78507
_cell_angle_alpha    60
_cell_angle_beta     60
_cell_angle_gamma    59.9999

_space_group_name_H-M_alt    "P 1"
_space_group_IT_number       1

loop_
  _space_group_symop_operation_xyz
  'x, y, z'

loop_
  _atom_site_type_symbol
  _atom_site_label
  _atom_site_symmetry_multiplicity
  _atom_site_fract_x
  _atom_site_fract_y
  _atom_site_fract_z
  _atom_site_occupancy
  Al  Al1       1.0  0.62500  0.62500  0.12500  1.0000
  Al  Al2       1.0  0.62500  0.62500  0.62500  1.0000
  Al  Al3       1.0  0.62500  0.12500  0.62500  1.0000
  Al  Al4       1.0  0.12500  0.62500  0.62500  1.0000
  Co  Co1       1.0  -0.00000  0.00000  1.00000  1.0000
  Co  Co2       1.0  0.25000  0.25000  0.25000  1.0000
  O   O1        1.0  0.86052  0.86052  0.86052  1.0000
  O   O2        1.0  0.86052  0.86052  0.41845  1.0000
  O   O3        1.0  0.86052  0.41845  0.86052  1.0000
  O   O4        1.0  0.41845  0.86052  0.86052  1.0000
  O   O5        1.0  0.83155  0.38948  0.38948  1.0000
  O   O6        1.0  0.38948  0.83155  0.38948  1.0000
  O   O7        1.0  0.38948  0.38948  0.83155  1.0000
  O   O8        1.0  0.38948  0.38948  0.38948  1.0000
